
  OWA STORM WATER MANAGEMENT MODEL - VERSION v5.1.14 (OWA 2022-07-31)
  --------------------------------------------------------------

  
  *********************************************************
  NOTE: The summary statistics displayed in this report are
  based on results found at every computational time step,  
  not just on results from each reporting time step.
  *********************************************************
  
  ****************
  Analysis Options
  ****************
  Flow Units ............... CMS
  Process Models:
    Rainfall/Runoff ........ NO
    RDII ................... NO
    Snowmelt ............... NO
    Groundwater ............ NO
    Flow Routing ........... YES
    Ponding Allowed ........ NO
    Water Quality .......... NO
  Flow Routing Method ...... DYNWAVE
  Surcharge Method ......... EXTRAN
  Starting Date ............ 09/08/2022 00:00:00
  Ending Date .............. 09/08/2022 06:00:01
  Antecedent Dry Days ...... 0.0
  Report Time Step ......... 00:00:01
  Routing Time Step ........ 1.00 sec
  Variable Time Step ....... YES
  Maximum Trials ........... 8
  Number of Threads ........ 1
  Head Tolerance ........... 0.001500 m
  
  
  ************
  Node Results
  ************
  
  <<< Node Inlet_1 >>>
  ----------------------------------------------------------------
                           Inflow  Flooding     Depth      Head
  Date        Time            CMS       CMS    meters    meters
  ----------------------------------------------------------------
   09/08/2022 00:00:01      0.000     0.000     0.000    37.500
   09/08/2022 00:00:02      0.000     0.000     0.000    37.500
   09/08/2022 00:00:03      0.000     0.000     0.000    37.500
   09/08/2022 00:00:04      0.000     0.000     0.000    37.500
   09/08/2022 00:00:05      0.000     0.000     0.000    37.500
   09/08/2022 00:00:06      0.000     0.000     0.000    37.500
   09/08/2022 00:00:07      0.000     0.000     0.000    37.500
   09/08/2022 00:00:08      0.001     0.000     0.000    37.500
   09/08/2022 00:00:09      0.007     0.000     0.003    37.503
   09/08/2022 00:00:10      0.022     0.000     0.015    37.515
   09/08/2022 00:00:11      0.040     0.000     0.039    37.539
   09/08/2022 00:00:12      0.057     0.000     0.067    37.567
   09/08/2022 00:00:13      0.070     0.000     0.091    37.591
   09/08/2022 00:00:14      0.078     0.000     0.104    37.604
   09/08/2022 00:00:15      0.083     0.000     0.104    37.604
   09/08/2022 00:00:16      0.084     0.000     0.097    37.597
   09/08/2022 00:00:17      0.084     0.000     0.091    37.591
   09/08/2022 00:00:18      0.082     0.000     0.089    37.589
   09/08/2022 00:00:19      0.080     0.000     0.088    37.588
   09/08/2022 00:00:20      0.079     0.000     0.086    37.586
   09/08/2022 00:00:21      0.078     0.000     0.086    37.586
   09/08/2022 00:00:22      0.077     0.000     0.085    37.585
   09/08/2022 00:00:23      0.076     0.000     0.085    37.585
   09/08/2022 00:00:24      0.076     0.000     0.085    37.585
   09/08/2022 00:00:25      0.076     0.000     0.085    37.585
   09/08/2022 00:00:26      0.077     0.000     0.085    37.585
   09/08/2022 00:00:27      0.077     0.000     0.085    37.585
   09/08/2022 00:00:28      0.077     0.000     0.085    37.585
   09/08/2022 00:00:29      0.077     0.000     0.085    37.585
   09/08/2022 00:00:30      0.077     0.000     0.086    37.586
   09/08/2022 00:00:31      0.077     0.000     0.086    37.586
   09/08/2022 00:00:32      0.077     0.000     0.086    37.586
   09/08/2022 00:00:33      0.077     0.000     0.086    37.586
   09/08/2022 00:00:34      0.077     0.000     0.086    37.586
   09/08/2022 00:00:35      0.077     0.000     0.086    37.586
   09/08/2022 00:00:36      0.077     0.000     0.085    37.585
   09/08/2022 00:00:37      0.077     0.000     0.085    37.585
   09/08/2022 00:00:38      0.077     0.000     0.085    37.585
   09/08/2022 00:00:39      0.077     0.000     0.085    37.585
   09/08/2022 00:00:40      0.077     0.000     0.085    37.585
   09/08/2022 00:00:41      0.077     0.000     0.085    37.585
   09/08/2022 00:00:42      0.077     0.000     0.085    37.585
   09/08/2022 00:00:43      0.077     0.000     0.085    37.585
   09/08/2022 00:00:44      0.077     0.000     0.085    37.585
   09/08/2022 00:00:45      0.077     0.000     0.085    37.585
   09/08/2022 00:00:46      0.077     0.000     0.085    37.585
   09/08/2022 00:00:47      0.077     0.000     0.085    37.585
   09/08/2022 00:00:48      0.077     0.000     0.085    37.585
   09/08/2022 00:00:49      0.077     0.000     0.085    37.585
   09/08/2022 00:00:50      0.077     0.000     0.085    37.585
   09/08/2022 00:00:51      0.077     0.000     0.085    37.585
   09/08/2022 00:00:52      0.077     0.000     0.085    37.585
   09/08/2022 00:00:53      0.077     0.000     0.085    37.585
   09/08/2022 00:00:54      0.077     0.000     0.085    37.585
   09/08/2022 00:00:55      0.077     0.000     0.085    37.585
   09/08/2022 00:00:56      0.077     0.000     0.085    37.585
   09/08/2022 00:00:57      0.077     0.000     0.085    37.585
   09/08/2022 00:00:58      0.077     0.000     0.085    37.585
   09/08/2022 00:00:59      0.077     0.000     0.085    37.585
   09/08/2022 00:01:00      0.077     0.000     0.085    37.585
   09/08/2022 00:01:01      0.077     0.000     0.085    37.585
   09/08/2022 00:01:02      0.077     0.000     0.085    37.585
   09/08/2022 00:01:03      0.077     0.000     0.085    37.585
   09/08/2022 00:01:04      0.077     0.000     0.085    37.585
   09/08/2022 00:01:05      0.077     0.000     0.085    37.585
   09/08/2022 00:01:06      0.077     0.000     0.085    37.585
   09/08/2022 00:01:07      0.077     0.000     0.085    37.585
   09/08/2022 00:01:08      0.077     0.000     0.085    37.585
   09/08/2022 00:01:09      0.077     0.000     0.085    37.585
   09/08/2022 00:01:10      0.077     0.000     0.085    37.585
   09/08/2022 00:01:11      0.077     0.000     0.085    37.585
   09/08/2022 00:01:12      0.077     0.000     0.085    37.585
   09/08/2022 00:01:13      0.077     0.000     0.085    37.585
   09/08/2022 00:01:14      0.077     0.000     0.085    37.585
   09/08/2022 00:01:15      0.077     0.000     0.085    37.585
   09/08/2022 00:01:16      0.077     0.000     0.085    37.585
   09/08/2022 00:01:17      0.077     0.000     0.085    37.585
   09/08/2022 00:01:18      0.077     0.000     0.085    37.585
   09/08/2022 00:01:19      0.077     0.000     0.085    37.585
   09/08/2022 00:01:20      0.077     0.000     0.085    37.585
   09/08/2022 00:01:21      0.077     0.000     0.085    37.585
   09/08/2022 00:01:22      0.077     0.000     0.085    37.585
   09/08/2022 00:01:23      0.077     0.000     0.085    37.585
   09/08/2022 00:01:24      0.077     0.000     0.085    37.585
   09/08/2022 00:01:25      0.077     0.000     0.085    37.585
   09/08/2022 00:01:26      0.077     0.000     0.085    37.585
   09/08/2022 00:01:27      0.077     0.000     0.085    37.585
   09/08/2022 00:01:28      0.077     0.000     0.085    37.585
   09/08/2022 00:01:29      0.077     0.000     0.085    37.585
   09/08/2022 00:01:30      0.077     0.000     0.085    37.585
   09/08/2022 00:01:31      0.077     0.000     0.085    37.585
   09/08/2022 00:01:32      0.077     0.000     0.085    37.585
   09/08/2022 00:01:33      0.077     0.000     0.085    37.585
   09/08/2022 00:01:34      0.077     0.000     0.085    37.585
   09/08/2022 00:01:35      0.077     0.000     0.085    37.585
   09/08/2022 00:01:36      0.077     0.000     0.085    37.585
   09/08/2022 00:01:37      0.077     0.000     0.085    37.585
   09/08/2022 00:01:38      0.077     0.000     0.085    37.585
   09/08/2022 00:01:39      0.077     0.000     0.085    37.585
   09/08/2022 00:01:40      0.077     0.000     0.085    37.585
   09/08/2022 00:01:41      0.077     0.000     0.085    37.585
  
  
  <<< Node Inlet_2 >>>
  ----------------------------------------------------------------
                           Inflow  Flooding     Depth      Head
  Date        Time            CMS       CMS    meters    meters
  ----------------------------------------------------------------
   09/08/2022 00:00:01      0.000     0.000     0.000    36.400
   09/08/2022 00:00:02      0.000     0.000     0.000    36.400
   09/08/2022 00:00:03      0.000     0.000     0.000    36.400
   09/08/2022 00:00:04      0.000     0.000     0.000    36.400
   09/08/2022 00:00:05      0.000     0.000     0.000    36.400
   09/08/2022 00:00:06      0.000     0.000     0.000    36.400
   09/08/2022 00:00:07      0.000     0.000     0.000    36.400
   09/08/2022 00:00:08      0.000     0.000     0.000    36.400
   09/08/2022 00:00:09      0.000     0.000     0.000    36.400
   09/08/2022 00:00:10      0.001     0.000     0.000    36.400
   09/08/2022 00:00:11      0.008     0.000     0.003    36.403
   09/08/2022 00:00:12      0.025     0.000     0.013    36.413
   09/08/2022 00:00:13      0.049     0.000     0.031    36.431
   09/08/2022 00:00:14      0.072     0.000     0.053    36.453
   09/08/2022 00:00:15      0.091     0.000     0.076    36.476
   09/08/2022 00:00:16      0.099     0.000     0.095    36.495
   09/08/2022 00:00:17      0.102     0.000     0.106    36.506
   09/08/2022 00:00:18      0.109     0.000     0.109    36.509
   09/08/2022 00:00:19      0.118     0.000     0.108    36.508
   09/08/2022 00:00:20      0.122     0.000     0.105    36.505
   09/08/2022 00:00:21      0.122     0.000     0.103    36.503
   09/08/2022 00:00:22      0.119     0.000     0.101    36.501
   09/08/2022 00:00:23      0.115     0.000     0.100    36.500
   09/08/2022 00:00:24      0.111     0.000     0.098    36.498
   09/08/2022 00:00:25      0.108     0.000     0.096    36.496
   09/08/2022 00:00:26      0.105     0.000     0.095    36.495
   09/08/2022 00:00:27      0.102     0.000     0.094    36.494
   09/08/2022 00:00:28      0.100     0.000     0.093    36.493
   09/08/2022 00:00:29      0.098     0.000     0.091    36.491
   09/08/2022 00:00:30      0.096     0.000     0.091    36.491
   09/08/2022 00:00:31      0.095     0.000     0.090    36.490
   09/08/2022 00:00:32      0.094     0.000     0.089    36.489
   09/08/2022 00:00:33      0.093     0.000     0.089    36.489
   09/08/2022 00:00:34      0.094     0.000     0.089    36.489
   09/08/2022 00:00:35      0.095     0.000     0.089    36.489
   09/08/2022 00:00:36      0.096     0.000     0.089    36.489
   09/08/2022 00:00:37      0.097     0.000     0.090    36.490
   09/08/2022 00:00:38      0.098     0.000     0.090    36.490
   09/08/2022 00:00:39      0.098     0.000     0.091    36.491
   09/08/2022 00:00:40      0.099     0.000     0.091    36.491
   09/08/2022 00:00:41      0.099     0.000     0.091    36.491
   09/08/2022 00:00:42      0.099     0.000     0.091    36.491
   09/08/2022 00:00:43      0.098     0.000     0.091    36.491
   09/08/2022 00:00:44      0.098     0.000     0.091    36.491
   09/08/2022 00:00:45      0.098     0.000     0.091    36.491
   09/08/2022 00:00:46      0.098     0.000     0.091    36.491
   09/08/2022 00:00:47      0.097     0.000     0.091    36.491
   09/08/2022 00:00:48      0.097     0.000     0.091    36.491
   09/08/2022 00:00:49      0.097     0.000     0.090    36.490
   09/08/2022 00:00:50      0.097     0.000     0.090    36.490
   09/08/2022 00:00:51      0.097     0.000     0.090    36.490
   09/08/2022 00:00:52      0.097     0.000     0.090    36.490
   09/08/2022 00:00:53      0.097     0.000     0.090    36.490
   09/08/2022 00:00:54      0.097     0.000     0.091    36.491
   09/08/2022 00:00:55      0.097     0.000     0.091    36.491
   09/08/2022 00:00:56      0.097     0.000     0.091    36.491
   09/08/2022 00:00:57      0.098     0.000     0.091    36.491
   09/08/2022 00:00:58      0.098     0.000     0.091    36.491
   09/08/2022 00:00:59      0.098     0.000     0.091    36.491
   09/08/2022 00:01:00      0.097     0.000     0.091    36.491
   09/08/2022 00:01:01      0.097     0.000     0.091    36.491
   09/08/2022 00:01:02      0.097     0.000     0.091    36.491
   09/08/2022 00:01:03      0.097     0.000     0.091    36.491
   09/08/2022 00:01:04      0.097     0.000     0.091    36.491
   09/08/2022 00:01:05      0.097     0.000     0.091    36.491
   09/08/2022 00:01:06      0.097     0.000     0.091    36.491
   09/08/2022 00:01:07      0.097     0.000     0.091    36.491
   09/08/2022 00:01:08      0.097     0.000     0.091    36.491
   09/08/2022 00:01:09      0.097     0.000     0.091    36.491
   09/08/2022 00:01:10      0.097     0.000     0.091    36.491
   09/08/2022 00:01:11      0.097     0.000     0.091    36.491
   09/08/2022 00:01:12      0.097     0.000     0.091    36.491
   09/08/2022 00:01:13      0.097     0.000     0.091    36.491
   09/08/2022 00:01:14      0.097     0.000     0.091    36.491
   09/08/2022 00:01:15      0.097     0.000     0.091    36.491
   09/08/2022 00:01:16      0.097     0.000     0.091    36.491
   09/08/2022 00:01:17      0.097     0.000     0.091    36.491
   09/08/2022 00:01:18      0.097     0.000     0.091    36.491
   09/08/2022 00:01:19      0.097     0.000     0.091    36.491
   09/08/2022 00:01:20      0.097     0.000     0.091    36.491
   09/08/2022 00:01:21      0.097     0.000     0.091    36.491
   09/08/2022 00:01:22      0.097     0.000     0.091    36.491
   09/08/2022 00:01:23      0.097     0.000     0.091    36.491
   09/08/2022 00:01:24      0.097     0.000     0.091    36.491
   09/08/2022 00:01:25      0.097     0.000     0.091    36.491
   09/08/2022 00:01:26      0.097     0.000     0.091    36.491
   09/08/2022 00:01:27      0.097     0.000     0.091    36.491
   09/08/2022 00:01:28      0.097     0.000     0.091    36.491
   09/08/2022 00:01:29      0.097     0.000     0.091    36.491
   09/08/2022 00:01:30      0.097     0.000     0.091    36.491
   09/08/2022 00:01:31      0.097     0.000     0.091    36.491
   09/08/2022 00:01:32      0.097     0.000     0.091    36.491
   09/08/2022 00:01:33      0.097     0.000     0.091    36.491
   09/08/2022 00:01:34      0.097     0.000     0.091    36.491
   09/08/2022 00:01:35      0.097     0.000     0.091    36.491
   09/08/2022 00:01:36      0.097     0.000     0.091    36.491
   09/08/2022 00:01:37      0.097     0.000     0.091    36.491
   09/08/2022 00:01:38      0.097     0.000     0.091    36.491
   09/08/2022 00:01:39      0.097     0.000     0.091    36.491
   09/08/2022 00:01:40      0.097     0.000     0.091    36.491
   09/08/2022 00:01:41      0.097     0.000     0.091    36.491
  
  
  <<< Node Inlet_3 >>>
  ----------------------------------------------------------------
                           Inflow  Flooding     Depth      Head
  Date        Time            CMS       CMS    meters    meters
  ----------------------------------------------------------------
   09/08/2022 00:00:01      0.000     0.000     0.000    34.500
   09/08/2022 00:00:02      0.000     0.000     0.000    34.500
   09/08/2022 00:00:03      0.000     0.000     0.000    34.500
   09/08/2022 00:00:04      0.000     0.000     0.000    34.500
   09/08/2022 00:00:05      0.000     0.000     0.000    34.500
   09/08/2022 00:00:06      0.000     0.000     0.000    34.500
   09/08/2022 00:00:07      0.000     0.000     0.000    34.500
   09/08/2022 00:00:08      0.000     0.000     0.000    34.500
   09/08/2022 00:00:09      0.000     0.000     0.000    34.500
   09/08/2022 00:00:10      0.000     0.000     0.000    34.500
   09/08/2022 00:00:11      0.000     0.000     0.000    34.500
   09/08/2022 00:00:12      0.001     0.000     0.001    34.501
   09/08/2022 00:00:13      0.006     0.000     0.003    34.503
   09/08/2022 00:00:14      0.016     0.000     0.010    34.510
   09/08/2022 00:00:15      0.032     0.000     0.021    34.521
   09/08/2022 00:00:16      0.057     0.000     0.036    34.536
   09/08/2022 00:00:17      0.087     0.000     0.056    34.556
   09/08/2022 00:00:18      0.114     0.000     0.080    34.580
   09/08/2022 00:00:19      0.127     0.000     0.104    34.604
   09/08/2022 00:00:20      0.128     0.000     0.126    34.626
   09/08/2022 00:00:21      0.127     0.000     0.143    34.643
   09/08/2022 00:00:22      0.124     0.000     0.157    34.657
   09/08/2022 00:00:23      0.120     0.000     0.166    34.666
   09/08/2022 00:00:24      0.116     0.000     0.171    34.671
   09/08/2022 00:00:25      0.112     0.000     0.174    34.674
   09/08/2022 00:00:26      0.109     0.000     0.174    34.674
   09/08/2022 00:00:27      0.106     0.000     0.172    34.672
   09/08/2022 00:00:28      0.104     0.000     0.169    34.669
   09/08/2022 00:00:29      0.103     0.000     0.165    34.665
   09/08/2022 00:00:30      0.103     0.000     0.160    34.660
   09/08/2022 00:00:31      0.102     0.000     0.156    34.656
   09/08/2022 00:00:32      0.102     0.000     0.152    34.652
   09/08/2022 00:00:33      0.102     0.000     0.148    34.648
   09/08/2022 00:00:34      0.101     0.000     0.144    34.644
   09/08/2022 00:00:35      0.101     0.000     0.141    34.641
   09/08/2022 00:00:36      0.102     0.000     0.139    34.639
   09/08/2022 00:00:37      0.102     0.000     0.137    34.637
   09/08/2022 00:00:38      0.102     0.000     0.135    34.635
   09/08/2022 00:00:39      0.103     0.000     0.134    34.634
   09/08/2022 00:00:40      0.103     0.000     0.134    34.634
   09/08/2022 00:00:41      0.103     0.000     0.133    34.633
   09/08/2022 00:00:42      0.102     0.000     0.133    34.633
   09/08/2022 00:00:43      0.102     0.000     0.133    34.633
   09/08/2022 00:00:44      0.101     0.000     0.133    34.633
   09/08/2022 00:00:45      0.101     0.000     0.133    34.633
   09/08/2022 00:00:46      0.100     0.000     0.132    34.632
   09/08/2022 00:00:47      0.100     0.000     0.132    34.632
   09/08/2022 00:00:48      0.100     0.000     0.132    34.632
   09/08/2022 00:00:49      0.099     0.000     0.132    34.632
   09/08/2022 00:00:50      0.099     0.000     0.132    34.632
   09/08/2022 00:00:51      0.099     0.000     0.132    34.632
   09/08/2022 00:00:52      0.100     0.000     0.132    34.632
   09/08/2022 00:00:53      0.100     0.000     0.132    34.632
   09/08/2022 00:00:54      0.100     0.000     0.132    34.632
   09/08/2022 00:00:55      0.100     0.000     0.132    34.632
   09/08/2022 00:00:56      0.101     0.000     0.132    34.632
   09/08/2022 00:00:57      0.101     0.000     0.133    34.633
   09/08/2022 00:00:58      0.101     0.000     0.133    34.633
   09/08/2022 00:00:59      0.101     0.000     0.133    34.633
   09/08/2022 00:01:00      0.101     0.000     0.134    34.634
   09/08/2022 00:01:01      0.101     0.000     0.134    34.634
   09/08/2022 00:01:02      0.101     0.000     0.134    34.634
   09/08/2022 00:01:03      0.101     0.000     0.134    34.634
   09/08/2022 00:01:04      0.101     0.000     0.134    34.634
   09/08/2022 00:01:05      0.101     0.000     0.134    34.634
   09/08/2022 00:01:06      0.101     0.000     0.134    34.634
   09/08/2022 00:01:07      0.101     0.000     0.134    34.634
   09/08/2022 00:01:08      0.101     0.000     0.134    34.634
   09/08/2022 00:01:09      0.101     0.000     0.134    34.634
   09/08/2022 00:01:10      0.101     0.000     0.134    34.634
   09/08/2022 00:01:11      0.101     0.000     0.134    34.634
   09/08/2022 00:01:12      0.101     0.000     0.134    34.634
   09/08/2022 00:01:13      0.101     0.000     0.134    34.634
   09/08/2022 00:01:14      0.101     0.000     0.134    34.634
   09/08/2022 00:01:15      0.101     0.000     0.134    34.634
   09/08/2022 00:01:16      0.101     0.000     0.134    34.634
   09/08/2022 00:01:17      0.101     0.000     0.134    34.634
   09/08/2022 00:01:18      0.101     0.000     0.134    34.634
   09/08/2022 00:01:19      0.101     0.000     0.134    34.634
   09/08/2022 00:01:20      0.101     0.000     0.134    34.634
   09/08/2022 00:01:21      0.101     0.000     0.134    34.634
   09/08/2022 00:01:22      0.101     0.000     0.134    34.634
   09/08/2022 00:01:23      0.101     0.000     0.134    34.634
   09/08/2022 00:01:24      0.101     0.000     0.134    34.634
   09/08/2022 00:01:25      0.101     0.000     0.134    34.634
   09/08/2022 00:01:26      0.101     0.000     0.134    34.634
   09/08/2022 00:01:27      0.101     0.000     0.134    34.634
   09/08/2022 00:01:28      0.101     0.000     0.134    34.634
   09/08/2022 00:01:29      0.101     0.000     0.134    34.634
   09/08/2022 00:01:30      0.101     0.000     0.134    34.634
   09/08/2022 00:01:31      0.101     0.000     0.134    34.634
   09/08/2022 00:01:32      0.101     0.000     0.134    34.634
   09/08/2022 00:01:33      0.101     0.000     0.134    34.634
   09/08/2022 00:01:34      0.101     0.000     0.134    34.634
   09/08/2022 00:01:35      0.101     0.000     0.134    34.634
   09/08/2022 00:01:36      0.101     0.000     0.134    34.634
   09/08/2022 00:01:37      0.101     0.000     0.134    34.634
   09/08/2022 00:01:38      0.101     0.000     0.134    34.634
   09/08/2022 00:01:39      0.101     0.000     0.134    34.634
   09/08/2022 00:01:40      0.101     0.000     0.134    34.634
   09/08/2022 00:01:41      0.101     0.000     0.134    34.634
  
  
  <<< Node Inlet_4 >>>
  ----------------------------------------------------------------
                           Inflow  Flooding     Depth      Head
  Date        Time            CMS       CMS    meters    meters
  ----------------------------------------------------------------
   09/08/2022 00:00:01      0.000     0.000     0.000    33.400
   09/08/2022 00:00:02      0.000     0.000     0.000    33.400
   09/08/2022 00:00:03      0.000     0.000     0.000    33.400
   09/08/2022 00:00:04      0.000     0.000     0.000    33.400
   09/08/2022 00:00:05      0.000     0.000     0.000    33.400
   09/08/2022 00:00:06      0.000     0.000     0.000    33.400
   09/08/2022 00:00:07      0.000     0.000     0.000    33.400
   09/08/2022 00:00:08      0.000     0.000     0.000    33.400
   09/08/2022 00:00:09      0.000     0.000     0.000    33.400
   09/08/2022 00:00:10      0.000     0.000     0.000    33.400
   09/08/2022 00:00:11      0.000     0.000     0.000    33.400
   09/08/2022 00:00:12      0.000     0.000     0.000    33.400
   09/08/2022 00:00:13      0.000     0.000     0.000    33.400
   09/08/2022 00:00:14      0.000     0.000     0.000    33.400
   09/08/2022 00:00:15      0.001     0.000     0.001    33.401
   09/08/2022 00:00:16      0.004     0.000     0.003    33.403
   09/08/2022 00:00:17      0.010     0.000     0.006    33.406
   09/08/2022 00:00:18      0.019     0.000     0.010    33.410
   09/08/2022 00:00:19      0.033     0.000     0.017    33.417
   09/08/2022 00:00:20      0.051     0.000     0.026    33.426
   09/08/2022 00:00:21      0.068     0.000     0.037    33.437
   09/08/2022 00:00:22      0.080     0.000     0.048    33.448
   09/08/2022 00:00:23      0.092     0.000     0.059    33.459
   09/08/2022 00:00:24      0.102     0.000     0.070    33.470
   09/08/2022 00:00:25      0.110     0.000     0.079    33.479
   09/08/2022 00:00:26      0.116     0.000     0.088    33.488
   09/08/2022 00:00:27      0.119     0.000     0.095    33.495
   09/08/2022 00:00:28      0.122     0.000     0.100    33.500
   09/08/2022 00:00:29      0.122     0.000     0.104    33.504
   09/08/2022 00:00:30      0.122     0.000     0.107    33.507
   09/08/2022 00:00:31      0.121     0.000     0.109    33.509
   09/08/2022 00:00:32      0.119     0.000     0.110    33.510
   09/08/2022 00:00:33      0.117     0.000     0.110    33.510
   09/08/2022 00:00:34      0.115     0.000     0.110    33.510
   09/08/2022 00:00:35      0.113     0.000     0.110    33.510
   09/08/2022 00:00:36      0.111     0.000     0.109    33.509
   09/08/2022 00:00:37      0.109     0.000     0.108    33.508
   09/08/2022 00:00:38      0.107     0.000     0.107    33.507
   09/08/2022 00:00:39      0.106     0.000     0.106    33.506
   09/08/2022 00:00:40      0.105     0.000     0.106    33.506
   09/08/2022 00:00:41      0.104     0.000     0.105    33.505
   09/08/2022 00:00:42      0.103     0.000     0.104    33.504
   09/08/2022 00:00:43      0.103     0.000     0.104    33.504
   09/08/2022 00:00:44      0.102     0.000     0.103    33.503
   09/08/2022 00:00:45      0.102     0.000     0.103    33.503
   09/08/2022 00:00:46      0.101     0.000     0.103    33.503
   09/08/2022 00:00:47      0.101     0.000     0.102    33.502
   09/08/2022 00:00:48      0.100     0.000     0.102    33.502
   09/08/2022 00:00:49      0.100     0.000     0.102    33.502
   09/08/2022 00:00:50      0.100     0.000     0.102    33.502
   09/08/2022 00:00:51      0.100     0.000     0.102    33.502
   09/08/2022 00:00:52      0.099     0.000     0.101    33.501
   09/08/2022 00:00:53      0.099     0.000     0.101    33.501
   09/08/2022 00:00:54      0.099     0.000     0.101    33.501
   09/08/2022 00:00:55      0.099     0.000     0.101    33.501
   09/08/2022 00:00:56      0.100     0.000     0.101    33.501
   09/08/2022 00:00:57      0.100     0.000     0.101    33.501
   09/08/2022 00:00:58      0.100     0.000     0.101    33.501
   09/08/2022 00:00:59      0.100     0.000     0.101    33.501
   09/08/2022 00:01:00      0.100     0.000     0.101    33.501
   09/08/2022 00:01:01      0.101     0.000     0.101    33.501
   09/08/2022 00:01:02      0.101     0.000     0.101    33.501
   09/08/2022 00:01:03      0.101     0.000     0.102    33.502
   09/08/2022 00:01:04      0.101     0.000     0.102    33.502
   09/08/2022 00:01:05      0.101     0.000     0.102    33.502
   09/08/2022 00:01:06      0.101     0.000     0.102    33.502
   09/08/2022 00:01:07      0.101     0.000     0.102    33.502
   09/08/2022 00:01:08      0.101     0.000     0.102    33.502
   09/08/2022 00:01:09      0.101     0.000     0.102    33.502
   09/08/2022 00:01:10      0.101     0.000     0.102    33.502
   09/08/2022 00:01:11      0.101     0.000     0.102    33.502
   09/08/2022 00:01:12      0.101     0.000     0.102    33.502
   09/08/2022 00:01:13      0.101     0.000     0.102    33.502
   09/08/2022 00:01:14      0.101     0.000     0.102    33.502
   09/08/2022 00:01:15      0.101     0.000     0.102    33.502
   09/08/2022 00:01:16      0.101     0.000     0.102    33.502
   09/08/2022 00:01:17      0.101     0.000     0.102    33.502
   09/08/2022 00:01:18      0.101     0.000     0.102    33.502
   09/08/2022 00:01:19      0.101     0.000     0.102    33.502
   09/08/2022 00:01:20      0.101     0.000     0.102    33.502
   09/08/2022 00:01:21      0.101     0.000     0.102    33.502
   09/08/2022 00:01:22      0.101     0.000     0.102    33.502
   09/08/2022 00:01:23      0.101     0.000     0.102    33.502
   09/08/2022 00:01:24      0.101     0.000     0.102    33.502
   09/08/2022 00:01:25      0.101     0.000     0.102    33.502
   09/08/2022 00:01:26      0.101     0.000     0.102    33.502
   09/08/2022 00:01:27      0.101     0.000     0.102    33.502
   09/08/2022 00:01:28      0.101     0.000     0.102    33.502
   09/08/2022 00:01:29      0.101     0.000     0.102    33.502
   09/08/2022 00:01:30      0.101     0.000     0.102    33.502
   09/08/2022 00:01:31      0.101     0.000     0.102    33.502
   09/08/2022 00:01:32      0.101     0.000     0.102    33.502
   09/08/2022 00:01:33      0.101     0.000     0.102    33.502
   09/08/2022 00:01:34      0.101     0.000     0.102    33.502
   09/08/2022 00:01:35      0.101     0.000     0.102    33.502
   09/08/2022 00:01:36      0.101     0.000     0.102    33.502
   09/08/2022 00:01:37      0.101     0.000     0.102    33.502
   09/08/2022 00:01:38      0.101     0.000     0.102    33.502
   09/08/2022 00:01:39      0.101     0.000     0.102    33.502
   09/08/2022 00:01:40      0.101     0.000     0.102    33.502
   09/08/2022 00:01:41      0.101     0.000     0.102    33.502
  
  
  <<< Node Outfall_1 >>>
  ----------------------------------------------------------------
                           Inflow  Flooding     Depth      Head
  Date        Time            CMS       CMS    meters    meters
  ----------------------------------------------------------------
   09/08/2022 00:00:01      0.000     0.000     0.000    31.000
   09/08/2022 00:00:02      0.000     0.000     0.000    31.000
   09/08/2022 00:00:03      0.000     0.000     0.000    31.000
   09/08/2022 00:00:04      0.000     0.000     0.000    31.000
   09/08/2022 00:00:05      0.000     0.000     0.000    31.000
   09/08/2022 00:00:06      0.000     0.000     0.000    31.000
   09/08/2022 00:00:07      0.000     0.000     0.000    31.000
   09/08/2022 00:00:08      0.000     0.000     0.000    31.000
   09/08/2022 00:00:09      0.000     0.000     0.000    31.000
   09/08/2022 00:00:10      0.000     0.000     0.000    31.000
   09/08/2022 00:00:11      0.000     0.000     0.000    31.000
   09/08/2022 00:00:12      0.000     0.000     0.000    31.000
   09/08/2022 00:00:13      0.000     0.000     0.000    31.000
   09/08/2022 00:00:14      0.000     0.000     0.000    31.000
   09/08/2022 00:00:15      0.000     0.000     0.000    31.000
   09/08/2022 00:00:16      0.000     0.000     0.002    31.002
   09/08/2022 00:00:17      0.000     0.000     0.005    31.005
   09/08/2022 00:00:18      0.001     0.000     0.011    31.011
   09/08/2022 00:00:19      0.002     0.000     0.016    31.016
   09/08/2022 00:00:20      0.005     0.000     0.024    31.024
   09/08/2022 00:00:21      0.010     0.000     0.033    31.033
   09/08/2022 00:00:22      0.017     0.000     0.042    31.042
   09/08/2022 00:00:23      0.026     0.000     0.052    31.052
   09/08/2022 00:00:24      0.038     0.000     0.063    31.063
   09/08/2022 00:00:25      0.051     0.000     0.072    31.072
   09/08/2022 00:00:26      0.065     0.000     0.081    31.081
   09/08/2022 00:00:27      0.078     0.000     0.089    31.089
   09/08/2022 00:00:28      0.089     0.000     0.096    31.096
   09/08/2022 00:00:29      0.099     0.000     0.101    31.101
   09/08/2022 00:00:30      0.107     0.000     0.104    31.104
   09/08/2022 00:00:31      0.112     0.000     0.107    31.107
   09/08/2022 00:00:32      0.116     0.000     0.109    31.109
   09/08/2022 00:00:33      0.117     0.000     0.109    31.109
   09/08/2022 00:00:34      0.118     0.000     0.110    31.110
   09/08/2022 00:00:35      0.118     0.000     0.110    31.110
   09/08/2022 00:00:36      0.116     0.000     0.109    31.109
   09/08/2022 00:00:37      0.115     0.000     0.108    31.108
   09/08/2022 00:00:38      0.113     0.000     0.108    31.108
   09/08/2022 00:00:39      0.112     0.000     0.107    31.107
   09/08/2022 00:00:40      0.110     0.000     0.106    31.106
   09/08/2022 00:00:41      0.108     0.000     0.105    31.105
   09/08/2022 00:00:42      0.107     0.000     0.105    31.105
   09/08/2022 00:00:43      0.106     0.000     0.104    31.104
   09/08/2022 00:00:44      0.105     0.000     0.103    31.103
   09/08/2022 00:00:45      0.104     0.000     0.103    31.103
   09/08/2022 00:00:46      0.103     0.000     0.103    31.103
   09/08/2022 00:00:47      0.103     0.000     0.102    31.102
   09/08/2022 00:00:48      0.102     0.000     0.102    31.102
   09/08/2022 00:00:49      0.102     0.000     0.102    31.102
   09/08/2022 00:00:50      0.101     0.000     0.102    31.102
   09/08/2022 00:00:51      0.101     0.000     0.101    31.101
   09/08/2022 00:00:52      0.100     0.000     0.101    31.101
   09/08/2022 00:00:53      0.100     0.000     0.101    31.101
   09/08/2022 00:00:54      0.100     0.000     0.101    31.101
   09/08/2022 00:00:55      0.100     0.000     0.101    31.101
   09/08/2022 00:00:56      0.100     0.000     0.101    31.101
   09/08/2022 00:00:57      0.100     0.000     0.101    31.101
   09/08/2022 00:00:58      0.100     0.000     0.101    31.101
   09/08/2022 00:00:59      0.100     0.000     0.101    31.101
   09/08/2022 00:01:00      0.100     0.000     0.101    31.101
   09/08/2022 00:01:01      0.100     0.000     0.101    31.101
   09/08/2022 00:01:02      0.100     0.000     0.101    31.101
   09/08/2022 00:01:03      0.100     0.000     0.101    31.101
   09/08/2022 00:01:04      0.101     0.000     0.101    31.101
   09/08/2022 00:01:05      0.101     0.000     0.101    31.101
   09/08/2022 00:01:06      0.101     0.000     0.101    31.101
   09/08/2022 00:01:07      0.101     0.000     0.101    31.101
   09/08/2022 00:01:08      0.101     0.000     0.102    31.102
   09/08/2022 00:01:09      0.101     0.000     0.102    31.102
   09/08/2022 00:01:10      0.101     0.000     0.102    31.102
   09/08/2022 00:01:11      0.101     0.000     0.102    31.102
   09/08/2022 00:01:12      0.101     0.000     0.102    31.102
   09/08/2022 00:01:13      0.101     0.000     0.102    31.102
   09/08/2022 00:01:14      0.101     0.000     0.102    31.102
   09/08/2022 00:01:15      0.101     0.000     0.102    31.102
   09/08/2022 00:01:16      0.101     0.000     0.102    31.102
   09/08/2022 00:01:17      0.101     0.000     0.102    31.102
   09/08/2022 00:01:18      0.101     0.000     0.102    31.102
   09/08/2022 00:01:19      0.101     0.000     0.101    31.101
   09/08/2022 00:01:20      0.101     0.000     0.101    31.101
   09/08/2022 00:01:21      0.101     0.000     0.101    31.101
   09/08/2022 00:01:22      0.101     0.000     0.101    31.101
   09/08/2022 00:01:23      0.101     0.000     0.101    31.101
   09/08/2022 00:01:24      0.101     0.000     0.101    31.101
   09/08/2022 00:01:25      0.101     0.000     0.101    31.101
   09/08/2022 00:01:26      0.101     0.000     0.101    31.101
   09/08/2022 00:01:27      0.101     0.000     0.101    31.101
   09/08/2022 00:01:28      0.101     0.000     0.101    31.101
   09/08/2022 00:01:29      0.101     0.000     0.101    31.101
   09/08/2022 00:01:30      0.101     0.000     0.101    31.101
   09/08/2022 00:01:31      0.101     0.000     0.101    31.101
   09/08/2022 00:01:32      0.101     0.000     0.101    31.101
   09/08/2022 00:01:33      0.101     0.000     0.101    31.101
   09/08/2022 00:01:34      0.101     0.000     0.101    31.101
   09/08/2022 00:01:35      0.101     0.000     0.101    31.101
   09/08/2022 00:01:36      0.101     0.000     0.101    31.101
   09/08/2022 00:01:37      0.101     0.000     0.101    31.101
   09/08/2022 00:01:38      0.101     0.000     0.101    31.101
   09/08/2022 00:01:39      0.101     0.000     0.101    31.101
   09/08/2022 00:01:40      0.101     0.000     0.101    31.101
   09/08/2022 00:01:41      0.101     0.000     0.101    31.101
  
  
  ************
  Link Results
  ************
  
  <<< Link Conduit_1 >>>
  ----------------------------------------------------------------
                             Flow  Velocity     Depth  Capacity/
  Date        Time            CMS     m/sec    meters   Setting 
  ----------------------------------------------------------------
   09/08/2022 00:00:01      0.000     0.000     0.000     0.000
   09/08/2022 00:00:02      0.000     0.000     0.000     0.000
   09/08/2022 00:00:03      0.000     0.000     0.000     0.000
   09/08/2022 00:00:04      0.000     0.000     0.000     0.000
   09/08/2022 00:00:05      0.000     0.000     0.000     0.000
   09/08/2022 00:00:06      0.000     0.000     0.000     0.000
   09/08/2022 00:00:07      0.000     0.000     0.000     0.000
   09/08/2022 00:00:08      0.000     0.000     0.000     0.000
   09/08/2022 00:00:09      0.000     0.000     0.002     0.001
   09/08/2022 00:00:10      0.001     1.818     0.008     0.005
   09/08/2022 00:00:11      0.008     3.191     0.021     0.022
   09/08/2022 00:00:12      0.025     3.857     0.041     0.059
   09/08/2022 00:00:13      0.049     4.100     0.062     0.107
   09/08/2022 00:00:14      0.072     4.244     0.079     0.154
   09/08/2022 00:00:15      0.091     4.402     0.091     0.186
   09/08/2022 00:00:16      0.095     4.217     0.097     0.204
   09/08/2022 00:00:17      0.087     3.752     0.099     0.211
   09/08/2022 00:00:18      0.083     3.541     0.099     0.212
   09/08/2022 00:00:19      0.082     3.559     0.098     0.208
   09/08/2022 00:00:20      0.080     3.587     0.096     0.202
   09/08/2022 00:00:21      0.078     3.595     0.094     0.197
   09/08/2022 00:00:22      0.077     3.602     0.093     0.194
   09/08/2022 00:00:23      0.077     3.622     0.092     0.191
   09/08/2022 00:00:24      0.076     3.659     0.091     0.189
   09/08/2022 00:00:25      0.076     3.707     0.091     0.186
   09/08/2022 00:00:26      0.076     3.756     0.090     0.184
   09/08/2022 00:00:27      0.077     3.801     0.089     0.183
   09/08/2022 00:00:28      0.077     3.843     0.089     0.181
   09/08/2022 00:00:29      0.077     3.881     0.088     0.180
   09/08/2022 00:00:30      0.077     3.914     0.088     0.179
   09/08/2022 00:00:31      0.077     3.942     0.088     0.178
   09/08/2022 00:00:32      0.077     3.962     0.087     0.177
   09/08/2022 00:00:33      0.077     3.972     0.087     0.176
   09/08/2022 00:00:34      0.077     3.973     0.087     0.176
   09/08/2022 00:00:35      0.077     3.964     0.087     0.177
   09/08/2022 00:00:36      0.077     3.950     0.087     0.177
   09/08/2022 00:00:37      0.077     3.933     0.088     0.178
   09/08/2022 00:00:38      0.077     3.918     0.088     0.179
   09/08/2022 00:00:39      0.077     3.905     0.088     0.179
   09/08/2022 00:00:40      0.077     3.897     0.088     0.179
   09/08/2022 00:00:41      0.077     3.893     0.088     0.180
   09/08/2022 00:00:42      0.077     3.893     0.088     0.180
   09/08/2022 00:00:43      0.077     3.895     0.088     0.180
   09/08/2022 00:00:44      0.077     3.898     0.088     0.179
   09/08/2022 00:00:45      0.077     3.902     0.088     0.179
   09/08/2022 00:00:46      0.077     3.906     0.088     0.179
   09/08/2022 00:00:47      0.077     3.910     0.088     0.179
   09/08/2022 00:00:48      0.077     3.912     0.088     0.179
   09/08/2022 00:00:49      0.077     3.914     0.088     0.179
   09/08/2022 00:00:50      0.077     3.915     0.088     0.179
   09/08/2022 00:00:51      0.077     3.914     0.088     0.179
   09/08/2022 00:00:52      0.077     3.914     0.088     0.179
   09/08/2022 00:00:53      0.077     3.913     0.088     0.179
   09/08/2022 00:00:54      0.077     3.912     0.088     0.179
   09/08/2022 00:00:55      0.077     3.911     0.088     0.179
   09/08/2022 00:00:56      0.077     3.910     0.088     0.179
   09/08/2022 00:00:57      0.077     3.909     0.088     0.179
   09/08/2022 00:00:58      0.077     3.909     0.088     0.179
   09/08/2022 00:00:59      0.077     3.909     0.088     0.179
   09/08/2022 00:01:00      0.077     3.909     0.088     0.179
   09/08/2022 00:01:01      0.077     3.909     0.088     0.179
   09/08/2022 00:01:02      0.077     3.910     0.088     0.179
   09/08/2022 00:01:03      0.077     3.910     0.088     0.179
   09/08/2022 00:01:04      0.077     3.910     0.088     0.179
   09/08/2022 00:01:05      0.077     3.910     0.088     0.179
   09/08/2022 00:01:06      0.077     3.911     0.088     0.179
   09/08/2022 00:01:07      0.077     3.911     0.088     0.179
   09/08/2022 00:01:08      0.077     3.911     0.088     0.179
   09/08/2022 00:01:09      0.077     3.911     0.088     0.179
   09/08/2022 00:01:10      0.077     3.911     0.088     0.179
   09/08/2022 00:01:11      0.077     3.910     0.088     0.179
   09/08/2022 00:01:12      0.077     3.910     0.088     0.179
   09/08/2022 00:01:13      0.077     3.910     0.088     0.179
   09/08/2022 00:01:14      0.077     3.910     0.088     0.179
   09/08/2022 00:01:15      0.077     3.910     0.088     0.179
   09/08/2022 00:01:16      0.077     3.910     0.088     0.179
   09/08/2022 00:01:17      0.077     3.910     0.088     0.179
   09/08/2022 00:01:18      0.077     3.910     0.088     0.179
   09/08/2022 00:01:19      0.077     3.910     0.088     0.179
   09/08/2022 00:01:20      0.077     3.910     0.088     0.179
   09/08/2022 00:01:21      0.077     3.910     0.088     0.179
   09/08/2022 00:01:22      0.077     3.910     0.088     0.179
   09/08/2022 00:01:23      0.077     3.910     0.088     0.179
   09/08/2022 00:01:24      0.077     3.910     0.088     0.179
   09/08/2022 00:01:25      0.077     3.910     0.088     0.179
   09/08/2022 00:01:26      0.077     3.910     0.088     0.179
   09/08/2022 00:01:27      0.077     3.910     0.088     0.179
   09/08/2022 00:01:28      0.077     3.910     0.088     0.179
   09/08/2022 00:01:29      0.077     3.910     0.088     0.179
   09/08/2022 00:01:30      0.077     3.910     0.088     0.179
   09/08/2022 00:01:31      0.077     3.910     0.088     0.179
   09/08/2022 00:01:32      0.077     3.910     0.088     0.179
   09/08/2022 00:01:33      0.077     3.910     0.088     0.179
   09/08/2022 00:01:34      0.077     3.910     0.088     0.179
   09/08/2022 00:01:35      0.077     3.910     0.088     0.179
   09/08/2022 00:01:36      0.077     3.910     0.088     0.179
   09/08/2022 00:01:37      0.077     3.910     0.088     0.179
   09/08/2022 00:01:38      0.077     3.910     0.088     0.179
   09/08/2022 00:01:39      0.077     3.910     0.088     0.179
   09/08/2022 00:01:40      0.077     3.910     0.088     0.179
   09/08/2022 00:01:41      0.077     3.910     0.088     0.179
  
  
  <<< Link Conduit_2 >>>
  ----------------------------------------------------------------
                             Flow  Velocity     Depth  Capacity/
  Date        Time            CMS     m/sec    meters   Setting 
  ----------------------------------------------------------------
   09/08/2022 00:00:01      0.000     0.000     0.000     0.000
   09/08/2022 00:00:02      0.000     0.000     0.000     0.000
   09/08/2022 00:00:03      0.000     0.000     0.000     0.000
   09/08/2022 00:00:04      0.000     0.000     0.000     0.000
   09/08/2022 00:00:05      0.000     0.000     0.000     0.000
   09/08/2022 00:00:06      0.000     0.000     0.000     0.000
   09/08/2022 00:00:07      0.000     0.000     0.000     0.000
   09/08/2022 00:00:08      0.000     0.000     0.000     0.000
   09/08/2022 00:00:09      0.000     0.000     0.000     0.000
   09/08/2022 00:00:10      0.000     0.000     0.000     0.000
   09/08/2022 00:00:11      0.000     0.000     0.001     0.000
   09/08/2022 00:00:12      0.001     3.170     0.006     0.004
   09/08/2022 00:00:13      0.006     3.616     0.016     0.015
   09/08/2022 00:00:14      0.016     3.783     0.030     0.038
   09/08/2022 00:00:15      0.032     3.904     0.047     0.074
   09/08/2022 00:00:16      0.057     4.429     0.065     0.117
   09/08/2022 00:00:17      0.087     4.896     0.081     0.160
   09/08/2022 00:00:18      0.114     5.192     0.095     0.198
   09/08/2022 00:00:19      0.127     4.907     0.107     0.234
   09/08/2022 00:00:20      0.128     4.372     0.117     0.265
   09/08/2022 00:00:21      0.127     4.003     0.124     0.288
   09/08/2022 00:00:22      0.124     3.652     0.130     0.306
   09/08/2022 00:00:23      0.120     3.404     0.133     0.318
   09/08/2022 00:00:24      0.116     3.236     0.135     0.324
   09/08/2022 00:00:25      0.112     3.118     0.135     0.325
   09/08/2022 00:00:26      0.108     3.045     0.135     0.323
   09/08/2022 00:00:27      0.105     3.009     0.133     0.317
   09/08/2022 00:00:28      0.103     3.003     0.131     0.310
   09/08/2022 00:00:29      0.100     3.015     0.128     0.301
   09/08/2022 00:00:30      0.098     3.037     0.125     0.293
   09/08/2022 00:00:31      0.096     3.066     0.123     0.285
   09/08/2022 00:00:32      0.095     3.102     0.120     0.277
   09/08/2022 00:00:33      0.094     3.144     0.118     0.271
   09/08/2022 00:00:34      0.094     3.196     0.117     0.265
   09/08/2022 00:00:35      0.094     3.256     0.115     0.261
   09/08/2022 00:00:36      0.094     3.321     0.114     0.257
   09/08/2022 00:00:37      0.095     3.385     0.113     0.255
   09/08/2022 00:00:38      0.096     3.443     0.113     0.253
   09/08/2022 00:00:39      0.097     3.490     0.112     0.252
   09/08/2022 00:00:40      0.098     3.524     0.112     0.252
   09/08/2022 00:00:41      0.098     3.546     0.112     0.251
   09/08/2022 00:00:42      0.099     3.557     0.112     0.251
   09/08/2022 00:00:43      0.099     3.560     0.112     0.251
   09/08/2022 00:00:44      0.098     3.559     0.112     0.250
   09/08/2022 00:00:45      0.098     3.556     0.112     0.250
   09/08/2022 00:00:46      0.098     3.552     0.112     0.249
   09/08/2022 00:00:47      0.098     3.549     0.111     0.249
   09/08/2022 00:00:48      0.097     3.548     0.111     0.249
   09/08/2022 00:00:49      0.097     3.548     0.111     0.248
   09/08/2022 00:00:50      0.097     3.549     0.111     0.248
   09/08/2022 00:00:51      0.097     3.550     0.111     0.248
   09/08/2022 00:00:52      0.097     3.550     0.111     0.248
   09/08/2022 00:00:53      0.097     3.550     0.111     0.248
   09/08/2022 00:00:54      0.097     3.548     0.111     0.248
   09/08/2022 00:00:55      0.097     3.544     0.111     0.249
   09/08/2022 00:00:56      0.097     3.540     0.111     0.249
   09/08/2022 00:00:57      0.097     3.534     0.112     0.250
   09/08/2022 00:00:58      0.097     3.528     0.112     0.250
   09/08/2022 00:00:59      0.098     3.521     0.112     0.251
   09/08/2022 00:01:00      0.098     3.515     0.112     0.251
   09/08/2022 00:01:01      0.098     3.510     0.112     0.251
   09/08/2022 00:01:02      0.097     3.506     0.112     0.252
   09/08/2022 00:01:03      0.097     3.504     0.112     0.252
   09/08/2022 00:01:04      0.097     3.502     0.112     0.252
   09/08/2022 00:01:05      0.097     3.501     0.112     0.252
   09/08/2022 00:01:06      0.097     3.502     0.112     0.252
   09/08/2022 00:01:07      0.097     3.503     0.112     0.252
   09/08/2022 00:01:08      0.097     3.504     0.112     0.252
   09/08/2022 00:01:09      0.097     3.506     0.112     0.252
   09/08/2022 00:01:10      0.097     3.508     0.112     0.251
   09/08/2022 00:01:11      0.097     3.510     0.112     0.251
   09/08/2022 00:01:12      0.097     3.511     0.112     0.251
   09/08/2022 00:01:13      0.097     3.513     0.112     0.251
   09/08/2022 00:01:14      0.097     3.514     0.112     0.251
   09/08/2022 00:01:15      0.097     3.514     0.112     0.251
   09/08/2022 00:01:16      0.097     3.515     0.112     0.251
   09/08/2022 00:01:17      0.097     3.515     0.112     0.251
   09/08/2022 00:01:18      0.097     3.515     0.112     0.251
   09/08/2022 00:01:19      0.097     3.514     0.112     0.251
   09/08/2022 00:01:20      0.097     3.514     0.112     0.251
   09/08/2022 00:01:21      0.097     3.514     0.112     0.251
   09/08/2022 00:01:22      0.097     3.513     0.112     0.251
   09/08/2022 00:01:23      0.097     3.513     0.112     0.251
   09/08/2022 00:01:24      0.097     3.513     0.112     0.251
   09/08/2022 00:01:25      0.097     3.513     0.112     0.251
   09/08/2022 00:01:26      0.097     3.512     0.112     0.251
   09/08/2022 00:01:27      0.097     3.512     0.112     0.251
   09/08/2022 00:01:28      0.097     3.512     0.112     0.251
   09/08/2022 00:01:29      0.097     3.512     0.112     0.251
   09/08/2022 00:01:30      0.097     3.512     0.112     0.251
   09/08/2022 00:01:31      0.097     3.512     0.112     0.251
   09/08/2022 00:01:32      0.097     3.513     0.112     0.251
   09/08/2022 00:01:33      0.097     3.513     0.112     0.251
   09/08/2022 00:01:34      0.097     3.513     0.112     0.251
   09/08/2022 00:01:35      0.097     3.513     0.112     0.251
   09/08/2022 00:01:36      0.097     3.513     0.112     0.251
   09/08/2022 00:01:37      0.097     3.513     0.112     0.251
   09/08/2022 00:01:38      0.097     3.513     0.112     0.251
   09/08/2022 00:01:39      0.097     3.513     0.112     0.251
   09/08/2022 00:01:40      0.097     3.513     0.112     0.251
   09/08/2022 00:01:41      0.097     3.513     0.112     0.251
  
  
  <<< Link Conduit_3 >>>
  ----------------------------------------------------------------
                             Flow  Velocity     Depth  Capacity/
  Date        Time            CMS     m/sec    meters   Setting 
  ----------------------------------------------------------------
   09/08/2022 00:00:01      0.000     0.000     0.000     0.000
   09/08/2022 00:00:02      0.000     0.000     0.000     0.000
   09/08/2022 00:00:03      0.000     0.000     0.000     0.000
   09/08/2022 00:00:04      0.000     0.000     0.000     0.000
   09/08/2022 00:00:05      0.000     0.000     0.000     0.000
   09/08/2022 00:00:06      0.000     0.000     0.000     0.000
   09/08/2022 00:00:07      0.000     0.000     0.000     0.000
   09/08/2022 00:00:08      0.000     0.000     0.000     0.000
   09/08/2022 00:00:09      0.000     0.000     0.000     0.000
   09/08/2022 00:00:10      0.000     0.000     0.000     0.000
   09/08/2022 00:00:11      0.000     0.000     0.000     0.000
   09/08/2022 00:00:12      0.000     0.000     0.000     0.000
   09/08/2022 00:00:13      0.000     0.000     0.001     0.000
   09/08/2022 00:00:14      0.000     1.356     0.004     0.002
   09/08/2022 00:00:15      0.001     1.569     0.010     0.008
   09/08/2022 00:00:16      0.004     1.907     0.019     0.019
   09/08/2022 00:00:17      0.010     2.293     0.030     0.038
   09/08/2022 00:00:18      0.019     2.582     0.044     0.067
   09/08/2022 00:00:19      0.033     2.827     0.061     0.105
   09/08/2022 00:00:20      0.051     3.154     0.077     0.147
   09/08/2022 00:00:21      0.068     3.288     0.091     0.186
   09/08/2022 00:00:22      0.080     3.250     0.103     0.223
   09/08/2022 00:00:23      0.092     3.269     0.113     0.253
   09/08/2022 00:00:24      0.102     3.302     0.121     0.279
   09/08/2022 00:00:25      0.110     3.334     0.127     0.298
   09/08/2022 00:00:26      0.116     3.363     0.131     0.311
   09/08/2022 00:00:27      0.119     3.390     0.133     0.319
   09/08/2022 00:00:28      0.122     3.413     0.134     0.322
   09/08/2022 00:00:29      0.122     3.433     0.134     0.322
   09/08/2022 00:00:30      0.122     3.450     0.134     0.320
   09/08/2022 00:00:31      0.121     3.464     0.132     0.316
   09/08/2022 00:00:32      0.119     3.474     0.131     0.311
   09/08/2022 00:00:33      0.117     3.480     0.129     0.305
   09/08/2022 00:00:34      0.115     3.482     0.127     0.299
   09/08/2022 00:00:35      0.113     3.481     0.125     0.293
   09/08/2022 00:00:36      0.111     3.478     0.124     0.288
   09/08/2022 00:00:37      0.109     3.473     0.122     0.284
   09/08/2022 00:00:38      0.107     3.466     0.121     0.280
   09/08/2022 00:00:39      0.106     3.459     0.120     0.277
   09/08/2022 00:00:40      0.105     3.451     0.120     0.275
   09/08/2022 00:00:41      0.104     3.443     0.119     0.273
   09/08/2022 00:00:42      0.103     3.436     0.119     0.272
   09/08/2022 00:00:43      0.103     3.429     0.118     0.271
   09/08/2022 00:00:44      0.102     3.423     0.118     0.270
   09/08/2022 00:00:45      0.102     3.418     0.118     0.269
   09/08/2022 00:00:46      0.101     3.414     0.118     0.268
   09/08/2022 00:00:47      0.101     3.410     0.117     0.267
   09/08/2022 00:00:48      0.100     3.406     0.117     0.267
   09/08/2022 00:00:49      0.100     3.403     0.117     0.266
   09/08/2022 00:00:50      0.100     3.400     0.117     0.266
   09/08/2022 00:00:51      0.100     3.398     0.117     0.265
   09/08/2022 00:00:52      0.099     3.396     0.116     0.265
   09/08/2022 00:00:53      0.099     3.394     0.116     0.265
   09/08/2022 00:00:54      0.099     3.393     0.116     0.265
   09/08/2022 00:00:55      0.099     3.393     0.117     0.265
   09/08/2022 00:00:56      0.100     3.393     0.117     0.266
   09/08/2022 00:00:57      0.100     3.393     0.117     0.266
   09/08/2022 00:00:58      0.100     3.394     0.117     0.267
   09/08/2022 00:00:59      0.100     3.395     0.117     0.267
   09/08/2022 00:01:00      0.100     3.396     0.117     0.268
   09/08/2022 00:01:01      0.101     3.397     0.118     0.268
   09/08/2022 00:01:02      0.101     3.399     0.118     0.269
   09/08/2022 00:01:03      0.101     3.400     0.118     0.269
   09/08/2022 00:01:04      0.101     3.401     0.118     0.269
   09/08/2022 00:01:05      0.101     3.402     0.118     0.269
   09/08/2022 00:01:06      0.101     3.403     0.118     0.269
   09/08/2022 00:01:07      0.101     3.403     0.118     0.269
   09/08/2022 00:01:08      0.101     3.403     0.118     0.269
   09/08/2022 00:01:09      0.101     3.404     0.118     0.269
   09/08/2022 00:01:10      0.101     3.404     0.118     0.269
   09/08/2022 00:01:11      0.101     3.404     0.118     0.269
   09/08/2022 00:01:12      0.101     3.404     0.118     0.269
   09/08/2022 00:01:13      0.101     3.403     0.118     0.269
   09/08/2022 00:01:14      0.101     3.403     0.118     0.269
   09/08/2022 00:01:15      0.101     3.403     0.118     0.269
   09/08/2022 00:01:16      0.101     3.403     0.118     0.269
   09/08/2022 00:01:17      0.101     3.403     0.118     0.269
   09/08/2022 00:01:18      0.101     3.402     0.118     0.269
   09/08/2022 00:01:19      0.101     3.402     0.118     0.269
   09/08/2022 00:01:20      0.101     3.402     0.118     0.269
   09/08/2022 00:01:21      0.101     3.402     0.118     0.269
   09/08/2022 00:01:22      0.101     3.402     0.118     0.269
   09/08/2022 00:01:23      0.101     3.402     0.118     0.269
   09/08/2022 00:01:24      0.101     3.402     0.118     0.269
   09/08/2022 00:01:25      0.101     3.402     0.118     0.269
   09/08/2022 00:01:26      0.101     3.402     0.118     0.269
   09/08/2022 00:01:27      0.101     3.402     0.118     0.269
   09/08/2022 00:01:28      0.101     3.402     0.118     0.269
   09/08/2022 00:01:29      0.101     3.402     0.118     0.269
   09/08/2022 00:01:30      0.101     3.402     0.118     0.269
   09/08/2022 00:01:31      0.101     3.402     0.118     0.269
   09/08/2022 00:01:32      0.101     3.402     0.118     0.269
   09/08/2022 00:01:33      0.101     3.402     0.118     0.269
   09/08/2022 00:01:34      0.101     3.402     0.118     0.269
   09/08/2022 00:01:35      0.101     3.402     0.118     0.269
   09/08/2022 00:01:36      0.101     3.402     0.118     0.269
   09/08/2022 00:01:37      0.101     3.402     0.118     0.269
   09/08/2022 00:01:38      0.101     3.402     0.118     0.269
   09/08/2022 00:01:39      0.101     3.402     0.118     0.269
   09/08/2022 00:01:40      0.101     3.402     0.118     0.269
   09/08/2022 00:01:41      0.101     3.402     0.118     0.269
  
  
  <<< Link Conduit_4 >>>
  ----------------------------------------------------------------
                             Flow  Velocity     Depth  Capacity/
  Date        Time            CMS     m/sec    meters   Setting 
  ----------------------------------------------------------------
   09/08/2022 00:00:01      0.000     0.000     0.000     0.000
   09/08/2022 00:00:02      0.000     0.000     0.000     0.000
   09/08/2022 00:00:03      0.000     0.000     0.000     0.000
   09/08/2022 00:00:04      0.000     0.000     0.000     0.000
   09/08/2022 00:00:05      0.000     0.000     0.000     0.000
   09/08/2022 00:00:06      0.000     0.000     0.000     0.000
   09/08/2022 00:00:07      0.000     0.000     0.000     0.000
   09/08/2022 00:00:08      0.000     0.000     0.000     0.000
   09/08/2022 00:00:09      0.000     0.000     0.000     0.000
   09/08/2022 00:00:10      0.000     0.000     0.000     0.000
   09/08/2022 00:00:11      0.000     0.000     0.000     0.000
   09/08/2022 00:00:12      0.000     0.000     0.000     0.000
   09/08/2022 00:00:13      0.000     0.000     0.000     0.000
   09/08/2022 00:00:14      0.000     0.000     0.000     0.000
   09/08/2022 00:00:15      0.000     0.000     0.001     0.000
   09/08/2022 00:00:16      0.000     0.000     0.002     0.001
   09/08/2022 00:00:17      0.000     0.742     0.006     0.002
   09/08/2022 00:00:18      0.001     1.018     0.010     0.006
   09/08/2022 00:00:19      0.002     1.226     0.015     0.010
   09/08/2022 00:00:20      0.005     1.679     0.023     0.019
   09/08/2022 00:00:21      0.010     1.945     0.033     0.033
   09/08/2022 00:00:22      0.017     2.206     0.042     0.048
   09/08/2022 00:00:23      0.026     2.506     0.053     0.066
   09/08/2022 00:00:24      0.038     2.785     0.064     0.086
   09/08/2022 00:00:25      0.051     3.032     0.073     0.106
   09/08/2022 00:00:26      0.065     3.251     0.082     0.125
   09/08/2022 00:00:27      0.078     3.436     0.090     0.142
   09/08/2022 00:00:28      0.089     3.583     0.096     0.157
   09/08/2022 00:00:29      0.099     3.702     0.101     0.168
   09/08/2022 00:00:30      0.107     3.791     0.105     0.177
   09/08/2022 00:00:31      0.112     3.852     0.107     0.183
   09/08/2022 00:00:32      0.116     3.891     0.109     0.187
   09/08/2022 00:00:33      0.117     3.913     0.110     0.189
   09/08/2022 00:00:34      0.118     3.920     0.110     0.189
   09/08/2022 00:00:35      0.118     3.918     0.110     0.189
   09/08/2022 00:00:36      0.116     3.909     0.109     0.187
   09/08/2022 00:00:37      0.115     3.895     0.108     0.186
   09/08/2022 00:00:38      0.113     3.879     0.108     0.184
   09/08/2022 00:00:39      0.112     3.862     0.107     0.182
   09/08/2022 00:00:40      0.110     3.845     0.106     0.180
   09/08/2022 00:00:41      0.108     3.829     0.105     0.178
   09/08/2022 00:00:42      0.107     3.814     0.105     0.176
   09/08/2022 00:00:43      0.106     3.801     0.104     0.175
   09/08/2022 00:00:44      0.105     3.790     0.104     0.174
   09/08/2022 00:00:45      0.104     3.781     0.103     0.173
   09/08/2022 00:00:46      0.103     3.773     0.103     0.172
   09/08/2022 00:00:47      0.103     3.766     0.102     0.171
   09/08/2022 00:00:48      0.102     3.760     0.102     0.171
   09/08/2022 00:00:49      0.102     3.755     0.102     0.170
   09/08/2022 00:00:50      0.101     3.750     0.102     0.169
   09/08/2022 00:00:51      0.101     3.746     0.101     0.169
   09/08/2022 00:00:52      0.100     3.742     0.101     0.169
   09/08/2022 00:00:53      0.100     3.738     0.101     0.168
   09/08/2022 00:00:54      0.100     3.736     0.101     0.168
   09/08/2022 00:00:55      0.100     3.734     0.101     0.168
   09/08/2022 00:00:56      0.100     3.733     0.101     0.168
   09/08/2022 00:00:57      0.100     3.732     0.101     0.168
   09/08/2022 00:00:58      0.100     3.732     0.101     0.168
   09/08/2022 00:00:59      0.100     3.733     0.101     0.168
   09/08/2022 00:01:00      0.100     3.735     0.101     0.168
   09/08/2022 00:01:01      0.100     3.737     0.101     0.168
   09/08/2022 00:01:02      0.100     3.739     0.101     0.168
   09/08/2022 00:01:03      0.100     3.741     0.101     0.169
   09/08/2022 00:01:04      0.101     3.743     0.101     0.169
   09/08/2022 00:01:05      0.101     3.745     0.102     0.169
   09/08/2022 00:01:06      0.101     3.747     0.102     0.169
   09/08/2022 00:01:07      0.101     3.748     0.102     0.169
   09/08/2022 00:01:08      0.101     3.749     0.102     0.170
   09/08/2022 00:01:09      0.101     3.750     0.102     0.170
   09/08/2022 00:01:10      0.101     3.750     0.102     0.170
   09/08/2022 00:01:11      0.101     3.751     0.102     0.170
   09/08/2022 00:01:12      0.101     3.751     0.102     0.170
   09/08/2022 00:01:13      0.101     3.750     0.102     0.170
   09/08/2022 00:01:14      0.101     3.750     0.102     0.170
   09/08/2022 00:01:15      0.101     3.750     0.102     0.170
   09/08/2022 00:01:16      0.101     3.749     0.102     0.169
   09/08/2022 00:01:17      0.101     3.749     0.102     0.169
   09/08/2022 00:01:18      0.101     3.749     0.102     0.169
   09/08/2022 00:01:19      0.101     3.748     0.102     0.169
   09/08/2022 00:01:20      0.101     3.748     0.102     0.169
   09/08/2022 00:01:21      0.101     3.748     0.102     0.169
   09/08/2022 00:01:22      0.101     3.748     0.102     0.169
   09/08/2022 00:01:23      0.101     3.748     0.102     0.169
   09/08/2022 00:01:24      0.101     3.748     0.102     0.169
   09/08/2022 00:01:25      0.101     3.748     0.102     0.169
   09/08/2022 00:01:26      0.101     3.748     0.102     0.169
   09/08/2022 00:01:27      0.101     3.748     0.102     0.169
   09/08/2022 00:01:28      0.101     3.748     0.102     0.169
   09/08/2022 00:01:29      0.101     3.748     0.102     0.169
   09/08/2022 00:01:30      0.101     3.748     0.102     0.169
   09/08/2022 00:01:31      0.101     3.748     0.102     0.169
   09/08/2022 00:01:32      0.101     3.748     0.102     0.169
   09/08/2022 00:01:33      0.101     3.748     0.102     0.169
   09/08/2022 00:01:34      0.101     3.748     0.102     0.169
   09/08/2022 00:01:35      0.101     3.748     0.102     0.169
   09/08/2022 00:01:36      0.101     3.748     0.102     0.169
   09/08/2022 00:01:37      0.101     3.748     0.102     0.169
   09/08/2022 00:01:38      0.101     3.748     0.102     0.169
   09/08/2022 00:01:39      0.101     3.748     0.102     0.169
   09/08/2022 00:01:40      0.101     3.748     0.102     0.169
   09/08/2022 00:01:41      0.101     3.748     0.102     0.169
  
  
  **************************        Volume        Volume
  Flow Routing Continuity        hectare-m      10^6 ltr
  **************************     ---------     ---------
  Dry Weather Inflow .......         0.000         0.000
  Wet Weather Inflow .......         0.000         0.000
  Groundwater Inflow .......         0.000         0.000
  RDII Inflow ..............         0.000         0.000
  External Inflow ..........         0.001         0.009
  External Outflow .........         0.001         0.008
  Flooding Loss ............         0.000         0.000
  Evaporation Loss .........         0.000         0.000
  Exfiltration Loss ........         0.000         0.000
  Initial Stored Volume ....         0.000         0.000
  Final Stored Volume ......         0.000         0.002
  Continuity Error (%) .....        -2.954
  
  
  *************************
  Highest Continuity Errors
  *************************
  Node Inlet_4 (6.29%)
  Node Inlet_3 (4.72%)
  Node Inlet_2 (2.18%)
  
  
  ***************************
  Time-Step Critical Elements
  ***************************
  None
  
  
  ********************************
  Highest Flow Instability Indexes
  ********************************
  Link Conduit_2 (8)
  Link Conduit_1 (3)
  Link Conduit_3 (3)
  Link Conduit_4 (2)
  
  
  *************************
  Routing Time Step Summary
  *************************
  Minimum Time Step           :     1.00 sec
  Average Time Step           :     1.00 sec
  Maximum Time Step           :     1.00 sec
  Percent in Steady State     :     0.00
  Average Iterations per Step :     2.20
  Percent Not Converging      :     0.00
  
  
  ******************
  Node Depth Summary
  ******************
  
  ---------------------------------------------------------------------------------
                                 Average  Maximum  Maximum  Time of Max    Reported
                                   Depth    Depth      HGL   Occurrence   Max Depth
  Node                 Type       Meters   Meters   Meters  days hr:min      Meters
  ---------------------------------------------------------------------------------
  Inlet_1              JUNCTION     0.08     0.11    37.61     0  00:00        0.10
  Inlet_2              JUNCTION     0.08     0.11    36.51     0  00:00        0.11
  Inlet_3              JUNCTION     0.11     0.17    34.67     0  00:00        0.17
  Inlet_4              JUNCTION     0.08     0.11    33.51     0  00:00        0.11
  Outfall_1            OUTFALL      0.08     0.11    31.11     0  00:00        0.11
  
  
  *******************
  Node Inflow Summary
  *******************
  
  -------------------------------------------------------------------------------------------------
                                  Maximum  Maximum                  Lateral       Total        Flow
                                  Lateral    Total  Time of Max      Inflow      Inflow     Balance
                                   Inflow   Inflow   Occurrence      Volume      Volume       Error
  Node                 Type           CMS      CMS  days hr:min    10^6 ltr    10^6 ltr     Percent
  -------------------------------------------------------------------------------------------------
  Inlet_1              JUNCTION     0.084    0.084     0  00:00     0.00702     0.00702       1.361
  Inlet_2              JUNCTION     0.044    0.123     0  00:00     0.00185     0.00877       2.224
  Inlet_3              JUNCTION     0.008    0.129     0  00:00    0.000281     0.00886       4.957
  Inlet_4              JUNCTION     0.000    0.122     0  00:00           0     0.00844       6.717
  Outfall_1            OUTFALL      0.000    0.118     0  00:00           0     0.00791       0.000
  
  
  **********************
  Node Surcharge Summary
  **********************
  
  No nodes were surcharged.
  
  
  *********************
  Node Flooding Summary
  *********************
  
  No nodes were flooded.
  
  
  ***********************
  Outfall Loading Summary
  ***********************
  
  -----------------------------------------------------------
                         Flow       Avg       Max       Total
                         Freq      Flow      Flow      Volume
  Outfall Node           Pcnt       CMS       CMS    10^6 ltr
  -----------------------------------------------------------
  Outfall_1             84.31     0.093     0.118       0.008
  -----------------------------------------------------------
  System                84.31     0.093     0.118       0.008
  
  
  ********************
  Link Flow Summary
  ********************
  
  -----------------------------------------------------------------------------
                                 Maximum  Time of Max   Maximum    Max/    Max/
                                  |Flow|   Occurrence   |Veloc|    Full    Full
  Link                 Type          CMS  days hr:min     m/sec    Flow   Depth
  -----------------------------------------------------------------------------
  Conduit_1            CONDUIT     0.098     0  00:00      4.48    0.14    0.27
  Conduit_2            CONDUIT     0.129     0  00:00      5.32    0.17    0.36
  Conduit_3            CONDUIT     0.122     0  00:00      3.48    0.25    0.36
  Conduit_4            CONDUIT     0.118     0  00:00      3.92    0.13    0.24
  
  
  ***************************
  Flow Classification Summary
  ***************************
  
  -------------------------------------------------------------------------------------
                      Adjusted    ---------- Fraction of Time in Flow Class ---------- 
                       /Actual         Up    Down  Sub   Sup   Up    Down  Norm  Inlet 
  Conduit               Length    Dry  Dry   Dry   Crit  Crit  Crit  Crit  Ltd   Ctrl  
  -------------------------------------------------------------------------------------
  Conduit_1               1.00   0.08  0.00  0.00  0.03  0.89  0.00  0.00  0.85  0.00
  Conduit_2               1.00   0.10  0.00  0.00  0.01  0.89  0.00  0.00  0.82  0.00
  Conduit_3               1.00   0.12  0.00  0.00  0.01  0.87  0.00  0.00  0.00  0.00
  Conduit_4               1.00   0.14  0.00  0.00  0.01  0.85  0.00  0.00  0.01  0.00
  
  
  *************************
  Conduit Surcharge Summary
  *************************
  
  No conduits were surcharged.
  

  Analysis begun on:  Fri Jan 13 08:49:09 2023
  Analysis ended on:  Fri Jan 13 08:52:15 2023
  Total elapsed time: 00:03:06