
  OWA STORM WATER MANAGEMENT MODEL - VERSION v5.1.14 (OWA 2022-07-31)
  --------------------------------------------------------------

  
  *********************************************************
  NOTE: The summary statistics displayed in this report are
  based on results found at every computational time step,  
  not just on results from each reporting time step.
  *********************************************************
  
  ****************
  Analysis Options
  ****************
  Flow Units ............... CMS
  Process Models:
    Rainfall/Runoff ........ NO
    RDII ................... NO
    Snowmelt ............... NO
    Groundwater ............ NO
    Flow Routing ........... YES
    Ponding Allowed ........ NO
    Water Quality .......... NO
  Flow Routing Method ...... DYNWAVE
  Surcharge Method ......... EXTRAN
  Starting Date ............ 09/08/2022 00:00:00
  Ending Date .............. 09/08/2022 06:00:01
  Antecedent Dry Days ...... 0.0
  Report Time Step ......... 00:00:01
  Routing Time Step ........ 1.00 sec
  Variable Time Step ....... YES
  Maximum Trials ........... 8
  Number of Threads ........ 1
  Head Tolerance ........... 0.001500 m
  
  
  ************
  Node Results
  ************
  
  <<< Node Inlet_1 >>>
  ----------------------------------------------------------------
                           Inflow  Flooding     Depth      Head
  Date        Time            CMS       CMS    meters    meters
  ----------------------------------------------------------------
   09/08/2022 00:00:01      0.000     0.000     0.000    37.500
   09/08/2022 00:00:02      0.000     0.000     0.000    37.500
   09/08/2022 00:00:03      0.000     0.000     0.000    37.500
   09/08/2022 00:00:04      0.000     0.000     0.000    37.500
   09/08/2022 00:00:05      0.000     0.000     0.000    37.500
   09/08/2022 00:00:06      0.000     0.000     0.000    37.500
   09/08/2022 00:00:07      0.000     0.000     0.000    37.500
   09/08/2022 00:00:08      0.001     0.000     0.000    37.500
   09/08/2022 00:00:09      0.007     0.000     0.003    37.503
   09/08/2022 00:00:10      0.022     0.000     0.015    37.515
   09/08/2022 00:00:11      0.040     0.000     0.039    37.539
  
  
  <<< Node Inlet_2 >>>
  ----------------------------------------------------------------
                           Inflow  Flooding     Depth      Head
  Date        Time            CMS       CMS    meters    meters
  ----------------------------------------------------------------
   09/08/2022 00:00:01      0.000     0.000     0.000    36.400
   09/08/2022 00:00:02      0.000     0.000     0.000    36.400
   09/08/2022 00:00:03      0.000     0.000     0.000    36.400
   09/08/2022 00:00:04      0.000     0.000     0.000    36.400
   09/08/2022 00:00:05      0.000     0.000     0.000    36.400
   09/08/2022 00:00:06      0.000     0.000     0.000    36.400
   09/08/2022 00:00:07      0.000     0.000     0.000    36.400
   09/08/2022 00:00:08      0.000     0.000     0.000    36.400
   09/08/2022 00:00:09      0.000     0.000     0.000    36.400
   09/08/2022 00:00:10      0.001     0.000     0.000    36.400
   09/08/2022 00:00:11      0.008     0.000     0.003    36.403
  
  
  <<< Node Inlet_3 >>>
  ----------------------------------------------------------------
                           Inflow  Flooding     Depth      Head
  Date        Time            CMS       CMS    meters    meters
  ----------------------------------------------------------------
   09/08/2022 00:00:01      0.000     0.000     0.000    34.500
   09/08/2022 00:00:02      0.000     0.000     0.000    34.500
   09/08/2022 00:00:03      0.000     0.000     0.000    34.500
   09/08/2022 00:00:04      0.000     0.000     0.000    34.500
   09/08/2022 00:00:05      0.000     0.000     0.000    34.500
   09/08/2022 00:00:06      0.000     0.000     0.000    34.500
   09/08/2022 00:00:07      0.000     0.000     0.000    34.500
   09/08/2022 00:00:08      0.000     0.000     0.000    34.500
   09/08/2022 00:00:09      0.000     0.000     0.000    34.500
   09/08/2022 00:00:10      0.000     0.000     0.000    34.500
   09/08/2022 00:00:11      0.000     0.000     0.000    34.500
  
  
  <<< Node Inlet_4 >>>
  ----------------------------------------------------------------
                           Inflow  Flooding     Depth      Head
  Date        Time            CMS       CMS    meters    meters
  ----------------------------------------------------------------
   09/08/2022 00:00:01      0.000     0.000     0.000    33.400
   09/08/2022 00:00:02      0.000     0.000     0.000    33.400
   09/08/2022 00:00:03      0.000     0.000     0.000    33.400
   09/08/2022 00:00:04      0.000     0.000     0.000    33.400
   09/08/2022 00:00:05      0.000     0.000     0.000    33.400
   09/08/2022 00:00:06      0.000     0.000     0.000    33.400
   09/08/2022 00:00:07      0.000     0.000     0.000    33.400
   09/08/2022 00:00:08      0.000     0.000     0.000    33.400
   09/08/2022 00:00:09      0.000     0.000     0.000    33.400
   09/08/2022 00:00:10      0.000     0.000     0.000    33.400
   09/08/2022 00:00:11      0.000     0.000     0.000    33.400
  
  
  <<< Node Outfall_1 >>>
  ----------------------------------------------------------------
                           Inflow  Flooding     Depth      Head
  Date        Time            CMS       CMS    meters    meters
  ----------------------------------------------------------------
   09/08/2022 00:00:01      0.000     0.000     0.000    31.000
   09/08/2022 00:00:02      0.000     0.000     0.000    31.000
   09/08/2022 00:00:03      0.000     0.000     0.000    31.000
   09/08/2022 00:00:04      0.000     0.000     0.000    31.000
   09/08/2022 00:00:05      0.000     0.000     0.000    31.000
   09/08/2022 00:00:06      0.000     0.000     0.000    31.000
   09/08/2022 00:00:07      0.000     0.000     0.000    31.000
   09/08/2022 00:00:08      0.000     0.000     0.000    31.000
   09/08/2022 00:00:09      0.000     0.000     0.000    31.000
   09/08/2022 00:00:10      0.000     0.000     0.000    31.000
   09/08/2022 00:00:11      0.000     0.000     0.000    31.000
  
  
  ************
  Link Results
  ************
  
  <<< Link Conduit_1 >>>
  ----------------------------------------------------------------
                             Flow  Velocity     Depth  Capacity/
  Date        Time            CMS     m/sec    meters   Setting 
  ----------------------------------------------------------------
   09/08/2022 00:00:01      0.000     0.000     0.000     0.000
   09/08/2022 00:00:02      0.000     0.000     0.000     0.000
   09/08/2022 00:00:03      0.000     0.000     0.000     0.000
   09/08/2022 00:00:04      0.000     0.000     0.000     0.000
   09/08/2022 00:00:05      0.000     0.000     0.000     0.000
   09/08/2022 00:00:06      0.000     0.000     0.000     0.000
   09/08/2022 00:00:07      0.000     0.000     0.000     0.000
   09/08/2022 00:00:08      0.000     0.000     0.000     0.000
   09/08/2022 00:00:09      0.000     0.000     0.002     0.001
   09/08/2022 00:00:10      0.001     1.818     0.008     0.005
   09/08/2022 00:00:11      0.008     3.191     0.021     0.022
  
  
  <<< Link Conduit_2 >>>
  ----------------------------------------------------------------
                             Flow  Velocity     Depth  Capacity/
  Date        Time            CMS     m/sec    meters   Setting 
  ----------------------------------------------------------------
   09/08/2022 00:00:01      0.000     0.000     0.000     0.000
   09/08/2022 00:00:02      0.000     0.000     0.000     0.000
   09/08/2022 00:00:03      0.000     0.000     0.000     0.000
   09/08/2022 00:00:04      0.000     0.000     0.000     0.000
   09/08/2022 00:00:05      0.000     0.000     0.000     0.000
   09/08/2022 00:00:06      0.000     0.000     0.000     0.000
   09/08/2022 00:00:07      0.000     0.000     0.000     0.000
   09/08/2022 00:00:08      0.000     0.000     0.000     0.000
   09/08/2022 00:00:09      0.000     0.000     0.000     0.000
   09/08/2022 00:00:10      0.000     0.000     0.000     0.000
   09/08/2022 00:00:11      0.000     0.000     0.001     0.000
  
  
  <<< Link Conduit_3 >>>
  ----------------------------------------------------------------
                             Flow  Velocity     Depth  Capacity/
  Date        Time            CMS     m/sec    meters   Setting 
  ----------------------------------------------------------------
   09/08/2022 00:00:01      0.000     0.000     0.000     0.000
   09/08/2022 00:00:02      0.000     0.000     0.000     0.000
   09/08/2022 00:00:03      0.000     0.000     0.000     0.000
   09/08/2022 00:00:04      0.000     0.000     0.000     0.000
   09/08/2022 00:00:05      0.000     0.000     0.000     0.000
   09/08/2022 00:00:06      0.000     0.000     0.000     0.000
   09/08/2022 00:00:07      0.000     0.000     0.000     0.000
   09/08/2022 00:00:08      0.000     0.000     0.000     0.000
   09/08/2022 00:00:09      0.000     0.000     0.000     0.000
   09/08/2022 00:00:10      0.000     0.000     0.000     0.000
   09/08/2022 00:00:11      0.000     0.000     0.000     0.000
  
  
  <<< Link Conduit_4 >>>
  ----------------------------------------------------------------
                             Flow  Velocity     Depth  Capacity/
  Date        Time            CMS     m/sec    meters   Setting 
  ----------------------------------------------------------------
   09/08/2022 00:00:01      0.000     0.000     0.000     0.000
   09/08/2022 00:00:02      0.000     0.000     0.000     0.000
   09/08/2022 00:00:03      0.000     0.000     0.000     0.000
   09/08/2022 00:00:04      0.000     0.000     0.000     0.000
   09/08/2022 00:00:05      0.000     0.000     0.000     0.000
   09/08/2022 00:00:06      0.000     0.000     0.000     0.000
   09/08/2022 00:00:07      0.000     0.000     0.000     0.000
   09/08/2022 00:00:08      0.000     0.000     0.000     0.000
   09/08/2022 00:00:09      0.000     0.000     0.000     0.000
   09/08/2022 00:00:10      0.000     0.000     0.000     0.000
   09/08/2022 00:00:11      0.000     0.000     0.000     0.000
  
  
  **************************        Volume        Volume
  Flow Routing Continuity        hectare-m      10^6 ltr
  **************************     ---------     ---------
  Dry Weather Inflow .......         0.000         0.000
  Wet Weather Inflow .......         0.000         0.000
  Groundwater Inflow .......         0.000         0.000
  RDII Inflow ..............         0.000         0.000
  External Inflow ..........         0.000         0.000
  External Outflow .........         0.000         0.000
  Flooding Loss ............         0.000         0.000
  Evaporation Loss .........         0.000         0.000
  Exfiltration Loss ........         0.000         0.000
  Initial Stored Volume ....         0.000         0.000
  Final Stored Volume ......         0.000         0.000
  Continuity Error (%) .....        42.869
  
  
  *************************
  Highest Continuity Errors
  *************************
  Node Inlet_2 (99.30%)
  
  
  ***************************
  Time-Step Critical Elements
  ***************************
  None
  
  
  ********************************
  Highest Flow Instability Indexes
  ********************************
  All links are stable.
  
  
  *************************
  Routing Time Step Summary
  *************************
  Minimum Time Step           :     1.00 sec
  Average Time Step           :     0.96 sec
  Maximum Time Step           :     1.00 sec
  Percent in Steady State     :     0.00
  Average Iterations per Step :     2.08
  Percent Not Converging      :     0.00
  
  
  ******************
  Node Depth Summary
  ******************
  
  ---------------------------------------------------------------------------------
                                 Average  Maximum  Maximum  Time of Max    Reported
                                   Depth    Depth      HGL   Occurrence   Max Depth
  Node                 Type       Meters   Meters   Meters  days hr:min      Meters
  ---------------------------------------------------------------------------------
  Inlet_1              JUNCTION     0.01     0.05    37.55     0  00:00        0.04
  Inlet_2              JUNCTION     0.00     0.01    36.41     0  00:00        0.00
  Inlet_3              JUNCTION     0.00     0.00    34.50     0  00:00        0.00
  Inlet_4              JUNCTION     0.00     0.00    33.40     0  00:00        0.00
  Outfall_1            OUTFALL      0.00     0.00    31.00     0  00:00        0.00
  
  
  *******************
  Node Inflow Summary
  *******************
  
  -------------------------------------------------------------------------------------------------
                                  Maximum  Maximum                  Lateral       Total        Flow
                                  Lateral    Total  Time of Max      Inflow      Inflow     Balance
                                   Inflow   Inflow   Occurrence      Volume      Volume       Error
  Node                 Type           CMS      CMS  days hr:min    10^6 ltr    10^6 ltr     Percent
  -------------------------------------------------------------------------------------------------
  Inlet_1              JUNCTION     0.049    0.049     0  00:00    6.91e-05    6.91e-05      60.109 ltr
  Inlet_2              JUNCTION     0.000    0.014     0  00:00           0    8.94e-06       8.881 ltr
  Inlet_3              JUNCTION     0.000    0.000     0  00:00           0    6.31e-08       0.063 ltr
  Inlet_4              JUNCTION     0.000    0.000     0  00:00           0           0       0.000 ltr
  Outfall_1            OUTFALL      0.000    0.000     0  00:00           0           0       0.000 ltr
  
  
  **********************
  Node Surcharge Summary
  **********************
  
  No nodes were surcharged.
  
  
  *********************
  Node Flooding Summary
  *********************
  
  No nodes were flooded.
  
  
  ***********************
  Outfall Loading Summary
  ***********************
  
  -----------------------------------------------------------
                         Flow       Avg       Max       Total
                         Freq      Flow      Flow      Volume
  Outfall Node           Pcnt       CMS       CMS    10^6 ltr
  -----------------------------------------------------------
  Outfall_1              0.00     0.000     0.000       0.000
  -----------------------------------------------------------
  System                 0.00     0.000     0.000       0.000
  
  
  ********************
  Link Flow Summary
  ********************
  
  -----------------------------------------------------------------------------
                                 Maximum  Time of Max   Maximum    Max/    Max/
                                  |Flow|   Occurrence   |Veloc|    Full    Full
  Link                 Type          CMS  days hr:min     m/sec    Flow   Depth
  -----------------------------------------------------------------------------
  Conduit_1            CONDUIT     0.014     0  00:00      3.41    0.02    0.08
  Conduit_2            CONDUIT     0.000     0  00:00      0.00    0.00    0.01
  Conduit_3            CONDUIT     0.000     0  00:00      0.00    0.00    0.00
  Conduit_4            CONDUIT     0.000     0  00:00      0.00    0.00    0.00
  
  
  ***************************
  Flow Classification Summary
  ***************************
  
  -------------------------------------------------------------------------------------
                      Adjusted    ---------- Fraction of Time in Flow Class ---------- 
                       /Actual         Up    Down  Sub   Sup   Up    Down  Norm  Inlet 
  Conduit               Length    Dry  Dry   Dry   Crit  Crit  Crit  Crit  Ltd   Ctrl  
  -------------------------------------------------------------------------------------
  Conduit_1               1.00   0.67  0.00  0.00  0.25  0.08  0.00  0.00  0.00  0.00
  Conduit_2               1.00   0.83  0.00  0.00  0.08  0.08  0.00  0.00  0.00  0.00
  Conduit_3               1.00   1.00  0.00  0.00  0.00  0.00  0.00  0.00  0.00  0.00
  Conduit_4               1.00   1.00  0.00  0.00  0.00  0.00  0.00  0.00  0.00  0.00
  
  
  *************************
  Conduit Surcharge Summary
  *************************
  
  No conduits were surcharged.
  

  Analysis begun on:  Wed Jan  4 17:32:31 2023
  Analysis ended on:  Wed Jan  4 17:32:41 2023
  Total elapsed time: 00:00:10